12
charge: 0,
C         -5.11714        1.40279       -0.27056
C         -3.79254        1.55089        0.15470
C         -5.76710        0.17318       -0.11918
C         -3.11791        0.46936        0.73133
C         -5.09247       -0.90835        0.45745
C         -3.76787       -0.76025        0.88270
H         -3.24596       -1.59695        1.32880
H         -2.09317        0.58393        1.06032
H         -6.79184        0.05861       -0.44817
H         -5.59530       -1.85961        0.57456
H         -5.63905        2.23949       -0.71665
H         -3.28971        2.50215        0.03759
