ethanol.xyz
 OpenBabel11251916033D

  9  8  0  0  0  0  0  0  0  0999 V2000
   -0.4170   -1.2785    0.2090 C   0  0  0  0  0  0  0  0  0  0  0  0
    0.5613   -0.1551   -0.0647 C   0  0  0  0  0  0  0  0  0  0  0  0
   -1.2355   -1.2647   -0.5182 H   0  0  0  0  0  0  0  0  0  0  0  0
   -0.8692   -1.1627    1.1994 H   0  0  0  0  0  0  0  0  0  0  0  0
    0.0815   -2.2505    0.1591 H   0  0  0  0  0  0  0  0  0  0  0  0
   -0.1008    1.0980    0.0260 O   0  0  0  0  0  0  0  0  0  0  0  0
    0.9984   -0.2498   -1.0634 H   0  0  0  0  0  0  0  0  0  0  0  0
    1.3723   -0.1664    0.6693 H   0  0  0  0  0  0  0  0  0  0  0  0
   -0.8130    1.1019   -0.6361 H   0  0  0  0  0  0  0  0  0  0  0  0
  1  4  1  0  0  0  0
  2  6  1  0  0  0  0
  2  1  1  0  0  0  0
  2  8  1  0  0  0  0
  3  1  1  0  0  0  0
  5  1  1  0  0  0  0
  7  2  1  0  0  0  0
  9  6  1  0  0  0  0
M  END
$$$$
