997

Pu -39.605638 -29.704229 -19.802818
Pu -39.605638 -29.704229 -9.901409
Pu -39.605638 -29.704229 0.000000
Pu -39.605638 -29.704229 9.901409
Pu -39.605638 -29.704229 19.802818
Pu -39.605638 -19.802818 -29.704229
Pu -39.605638 -19.802818 -19.802818
Pu -39.605638 -19.802818 -9.901409
Pu -39.605638 -19.802818 0.000000
Pu -39.605638 -19.802818 9.901409
Pu -39.605638 -19.802818 19.802818
Pu -39.605638 -19.802818 29.704229
Pu -39.605638 -9.901409 -29.704229
Pu -39.605638 -9.901409 -19.802818
Pu -39.605638 -9.901409 -9.901409
Pu -39.605638 -9.901409 0.000000
Pu -39.605638 -9.901409 9.901409
Pu -39.605638 -9.901409 19.802818
Pu -39.605638 -9.901409 29.704229
Pu -39.605638 -0.000000 -29.704229
Pu -39.605638 -0.000000 -19.802818
Pu -39.605638 -0.000000 -9.901409
Pu -39.605638 0.000000 0.000000
Pu -39.605638 0.000000 9.901409
Pu -39.605638 0.000000 19.802818
Pu -39.605638 0.000000 29.704229
Pu -39.605638 9.901409 -29.704229
Pu -39.605638 9.901409 -19.802818
Pu -39.605638 9.901409 -9.901409
Pu -39.605638 9.901409 0.000000
Pu -39.605638 9.901409 9.901409
Pu -39.605638 9.901409 19.802818
Pu -39.605638 9.901409 29.704229
Pu -39.605638 19.802818 -29.704229
Pu -39.605638 19.802818 -19.802818
Pu -39.605638 19.802818 -9.901409
Pu -39.605638 19.802818 0.000000
Pu -39.605638 19.802818 9.901409
Pu -39.605638 19.802818 19.802818
Pu -39.605638 19.802818 29.704229
Pu -39.605638 29.704229 -19.802818
Pu -39.605638 29.704229 -9.901409
Pu -39.605638 29.704229 0.000000
Pu -39.605638 29.704229 9.901409
Pu -39.605638 29.704229 19.802818
Pu -29.704229 -39.605638 -19.802818
Pu -29.704229 -39.605638 -9.901409
Pu -29.704229 -39.605638 0.000000
Pu -29.704229 -39.605638 9.901409
Pu -29.704229 -39.605638 19.802818
Pu -29.704229 -29.704229 -29.704229
Pu -29.704229 -29.704229 -19.802818
Pu -29.704229 -29.704229 -9.901409
Pu -29.704229 -29.704229 0.000000
Pu -29.704229 -29.704229 9.901409
Pu -29.704229 -29.704229 19.802818
Pu -29.704229 -29.704229 29.704229
Pu -29.704229 -19.802818 -39.605638
Pu -29.704229 -19.802818 -29.704229
Pu -29.704229 -19.802818 -19.802818
Pu -29.704229 -19.802818 -9.901409
Pu -29.704229 -19.802818 0.000000
Pu -29.704229 -19.802818 9.901409
Pu -29.704229 -19.802818 19.802818
Pu -29.704229 -19.802818 29.704229
Pu -29.704229 -19.802818 39.605638
Pu -29.704229 -9.901409 -39.605638
Pu -29.704229 -9.901409 -29.704229
Pu -29.704229 -9.901409 -19.802818
Pu -29.704229 -9.901409 -9.901409
Pu -29.704229 -9.901409 0.000000
Pu -29.704229 -9.901409 9.901409
Pu -29.704229 -9.901409 19.802818
Pu -29.704229 -9.901409 29.704229
Pu -29.704229 -9.901409 39.605638
Pu -29.704229 -0.000000 -39.605638
Pu -29.704229 -0.000000 -29.704229
Pu -29.704229 -0.000000 -19.802818
Pu -29.704229 -0.000000 -9.901409
Pu -29.704229 0.000000 0.000000
Pu -29.704229 0.000000 9.901409
Pu -29.704229 0.000000 19.802818
Pu -29.704229 0.000000 29.704229
Pu -29.704229 0.000000 39.605638
Pu -29.704229 9.901409 -39.605638
Pu -29.704229 9.901409 -29.704229
Pu -29.704229 9.901409 -19.802818
Pu -29.704229 9.901409 -9.901409
Pu -29.704229 9.901409 0.000000
Pu -29.704229 9.901409 9.901409
Pu -29.704229 9.901409 19.802818
Pu -29.704229 9.901409 29.704229
Pu -29.704229 9.901409 39.605638
Pu -29.704229 19.802818 -39.605638
Pu -29.704229 19.802818 -29.704229
Pu -29.704229 19.802818 -19.802818
Pu -29.704229 19.802818 -9.901409
Pu -29.704229 19.802818 0.000000
Pu -29.704229 19.802818 9.901409
Pu -29.704229 19.802818 19.802818
Pu -29.704229 19.802818 29.704229
Pu -29.704229 19.802818 39.605638
Pu -29.704229 29.704229 -29.704229
Pu -29.704229 29.704229 -19.802818
Pu -29.704229 29.704229 -9.901409
Pu -29.704229 29.704229 0.000000
Pu -29.704229 29.704229 9.901409
Pu -29.704229 29.704229 19.802818
Pu -29.704229 29.704229 29.704229
Pu -29.704229 39.605638 -19.802818
Pu -29.704229 39.605638 -9.901409
Pu -29.704229 39.605638 0.000000
Pu -29.704229 39.605638 9.901409
Pu -29.704229 39.605638 19.802818
Pu -19.802818 -39.605638 -29.704229
Pu -19.802818 -39.605638 -19.802818
Pu -19.802818 -39.605638 -9.901409
Pu -19.802818 -39.605638 0.000000
Pu -19.802818 -39.605638 9.901409
Pu -19.802818 -39.605638 19.802818
Pu -19.802818 -39.605638 29.704229
Pu -19.802818 -29.704229 -39.605638
Pu -19.802818 -29.704229 -29.704229
Pu -19.802818 -29.704229 -19.802818
Pu -19.802818 -29.704229 -9.901409
Pu -19.802818 -29.704229 0.000000
Pu -19.802818 -29.704229 9.901409
Pu -19.802818 -29.704229 19.802818
Pu -19.802818 -29.704229 29.704229
Pu -19.802818 -29.704229 39.605638
Pu -19.802818 -19.802818 -39.605638
Pu -19.802818 -19.802818 -29.704229
Pu -19.802818 -19.802818 -19.802818
Pu -19.802818 -19.802818 -9.901409
Pu -19.802818 -19.802818 0.000000
Pu -19.802818 -19.802818 9.901409
Pu -19.802818 -19.802818 19.802818
Pu -19.802818 -19.802818 29.704229
Pu -19.802818 -19.802818 39.605638
Pu -19.802818 -9.901409 -39.605638
Pu -19.802818 -9.901409 -29.704229
Pu -19.802818 -9.901409 -19.802818
Pu -19.802818 -9.901409 -9.901409
Pu -19.802818 -9.901409 0.000000
Pu -19.802818 -9.901409 9.901409
Pu -19.802818 -9.901409 19.802818
Pu -19.802818 -9.901409 29.704229
Pu -19.802818 -9.901409 39.605638
Pu -19.802818 -0.000000 -39.605638
Pu -19.802818 -0.000000 -29.704229
Pu -19.802818 -0.000000 -19.802818
Pu -19.802818 -0.000000 -9.901409
Pu -19.802818 0.000000 0.000000
Pu -19.802818 0.000000 9.901409
Pu -19.802818 0.000000 19.802818
Pu -19.802818 0.000000 29.704229
Pu -19.802818 0.000000 39.605638
Pu -19.802818 9.901409 -39.605638
Pu -19.802818 9.901409 -29.704229
Pu -19.802818 9.901409 -19.802818
Pu -19.802818 9.901409 -9.901409
Pu -19.802818 9.901409 0.000000
Pu -19.802818 9.901409 9.901409
Pu -19.802818 9.901409 19.802818
Pu -19.802818 9.901409 29.704229
Pu -19.802818 9.901409 39.605638
Pu -19.802818 19.802818 -39.605638
Pu -19.802818 19.802818 -29.704229
Pu -19.802818 19.802818 -19.802818
Pu -19.802818 19.802818 -9.901409
Pu -19.802818 19.802818 0.000000
Pu -19.802818 19.802818 9.901409
Pu -19.802818 19.802818 19.802818
Pu -19.802818 19.802818 29.704229
Pu -19.802818 19.802818 39.605638
Pu -19.802818 29.704229 -39.605638
Pu -19.802818 29.704229 -29.704229
Pu -19.802818 29.704229 -19.802818
Pu -19.802818 29.704229 -9.901409
Pu -19.802818 29.704229 0.000000
Pu -19.802818 29.704229 9.901409
Pu -19.802818 29.704229 19.802818
Pu -19.802818 29.704229 29.704229
Pu -19.802818 29.704229 39.605638
Pu -19.802818 39.605638 -29.704229
Pu -19.802818 39.605638 -19.802818
Pu -19.802818 39.605638 -9.901409
Pu -19.802818 39.605638 0.000000
Pu -19.802818 39.605638 9.901409
Pu -19.802818 39.605638 19.802818
Pu -19.802818 39.605638 29.704229
Pu -9.901409 -39.605638 -29.704229
Pu -9.901409 -39.605638 -19.802818
Pu -9.901409 -39.605638 -9.901409
Pu -9.901409 -39.605638 0.000000
Pu -9.901409 -39.605638 9.901409
Pu -9.901409 -39.605638 19.802818
Pu -9.901409 -39.605638 29.704229
Pu -9.901409 -29.704229 -39.605638
Pu -9.901409 -29.704229 -29.704229
Pu -9.901409 -29.704229 -19.802818
Pu -9.901409 -29.704229 -9.901409
Pu -9.901409 -29.704229 0.000000
Pu -9.901409 -29.704229 9.901409
Pu -9.901409 -29.704229 19.802818
Pu -9.901409 -29.704229 29.704229
Pu -9.901409 -29.704229 39.605638
Pu -9.901409 -19.802818 -39.605638
Pu -9.901409 -19.802818 -29.704229
Pu -9.901409 -19.802818 -19.802818
Pu -9.901409 -19.802818 -9.901409
Pu -9.901409 -19.802818 0.000000
Pu -9.901409 -19.802818 9.901409
Pu -9.901409 -19.802818 19.802818
Pu -9.901409 -19.802818 29.704229
Pu -9.901409 -19.802818 39.605638
Pu -9.901409 -9.901409 -39.605638
Pu -9.901409 -9.901409 -29.704229
Pu -9.901409 -9.901409 -19.802818
Pu -9.901409 -9.901409 -9.901409
Pu -9.901409 -9.901409 0.000000
Pu -9.901409 -9.901409 9.901409
Pu -9.901409 -9.901409 19.802818
Pu -9.901409 -9.901409 29.704229
Pu -9.901409 -9.901409 39.605638
Pu -9.901409 -0.000000 -39.605638
Pu -9.901409 -0.000000 -29.704229
Pu -9.901409 -0.000000 -19.802818
Pu -9.901409 -0.000000 -9.901409
Pu -9.901409 0.000000 0.000000
Pu -9.901409 0.000000 9.901409
Pu -9.901409 0.000000 19.802818
Pu -9.901409 0.000000 29.704229
Pu -9.901409 0.000000 39.605638
Pu -9.901409 9.901409 -39.605638
Pu -9.901409 9.901409 -29.704229
Pu -9.901409 9.901409 -19.802818
Pu -9.901409 9.901409 -9.901409
Pu -9.901409 9.901409 0.000000
Pu -9.901409 9.901409 9.901409
Pu -9.901409 9.901409 19.802818
Pu -9.901409 9.901409 29.704229
Pu -9.901409 9.901409 39.605638
Pu -9.901409 19.802818 -39.605638
Pu -9.901409 19.802818 -29.704229
Pu -9.901409 19.802818 -19.802818
Pu -9.901409 19.802818 -9.901409
Pu -9.901409 19.802818 0.000000
Pu -9.901409 19.802818 9.901409
Pu -9.901409 19.802818 19.802818
Pu -9.901409 19.802818 29.704229
Pu -9.901409 19.802818 39.605638
Pu -9.901409 29.704229 -39.605638
Pu -9.901409 29.704229 -29.704229
Pu -9.901409 29.704229 -19.802818
Pu -9.901409 29.704229 -9.901409
Pu -9.901409 29.704229 0.000000
Pu -9.901409 29.704229 9.901409
Pu -9.901409 29.704229 19.802818
Pu -9.901409 29.704229 29.704229
Pu -9.901409 29.704229 39.605638
Pu -9.901409 39.605638 -29.704229
Pu -9.901409 39.605638 -19.802818
Pu -9.901409 39.605638 -9.901409
Pu -9.901409 39.605638 0.000000
Pu -9.901409 39.605638 9.901409
Pu -9.901409 39.605638 19.802818
Pu -9.901409 39.605638 29.704229
Pu -0.000000 -39.605638 -29.704229
Pu -0.000000 -39.605638 -19.802818
Pu -0.000000 -39.605638 -9.901409
Pu -0.000000 -39.605638 0.000000
Pu -0.000000 -39.605638 9.901409
Pu -0.000000 -39.605638 19.802818
Pu -0.000000 -39.605638 29.704229
Pu -0.000000 -29.704229 -39.605638
Pu -0.000000 -29.704229 -29.704229
Pu -0.000000 -29.704229 -19.802818
Pu -0.000000 -29.704229 -9.901409
Pu -0.000000 -29.704229 0.000000
Pu -0.000000 -29.704229 9.901409
Pu -0.000000 -29.704229 19.802818
Pu 0.000000 -29.704229 29.704229
Pu 0.000000 -29.704229 39.605638
Pu -0.000000 -19.802818 -39.605638
Pu -0.000000 -19.802818 -29.704229
Pu -0.000000 -19.802818 -19.802818
Pu -0.000000 -19.802818 -9.901409
Pu -0.000000 -19.802818 0.000000
Pu -0.000000 -19.802818 9.901409
Pu 0.000000 -19.802818 19.802818
Pu 0.000000 -19.802818 29.704229
Pu 0.000000 -19.802818 39.605638
Pu -0.000000 -9.901409 -39.605638
Pu -0.000000 -9.901409 -29.704229
Pu -0.000000 -9.901409 -19.802818
Pu -0.000000 -9.901409 -9.901409
Pu -0.000000 -9.901409 0.000000
Pu 0.000000 -9.901409 9.901409
Pu 0.000000 -9.901409 19.802818
Pu 0.000000 -9.901409 29.704229
Pu 0.000000 -9.901409 39.605638
Pu -0.000000 -0.000000 -39.605638
Pu -0.000000 -0.000000 -29.704229
Pu -0.000000 -0.000000 -19.802818
Pu -0.000000 -0.000000 -9.901409
Pu 0.000000 0.000000 9.901409
Pu 0.000000 0.000000 19.802818
Pu 0.000000 0.000000 29.704229
Pu 0.000000 0.000000 39.605638
Pu -0.000000 9.901409 -39.605638
Pu -0.000000 9.901409 -29.704229
Pu -0.000000 9.901409 -19.802818
Pu 0.000000 9.901409 -9.901409
Pu 0.000000 9.901409 0.000000
Pu 0.000000 9.901409 9.901409
Pu 0.000000 9.901409 19.802818
Pu 0.000000 9.901409 29.704229
Pu 0.000000 9.901409 39.605638
Pu -0.000000 19.802818 -39.605638
Pu -0.000000 19.802818 -29.704229
Pu 0.000000 19.802818 -19.802818
Pu 0.000000 19.802818 -9.901409
Pu 0.000000 19.802818 0.000000
Pu 0.000000 19.802818 9.901409
Pu 0.000000 19.802818 19.802818
Pu 0.000000 19.802818 29.704229
Pu 0.000000 19.802818 39.605638
Pu -0.000000 29.704229 -39.605638
Pu 0.000000 29.704229 -29.704229
Pu 0.000000 29.704229 -19.802818
Pu 0.000000 29.704229 -9.901409
Pu 0.000000 29.704229 0.000000
Pu 0.000000 29.704229 9.901409
Pu 0.000000 29.704229 19.802818
Pu 0.000000 29.704229 29.704229
Pu 0.000000 29.704229 39.605638
Pu 0.000000 39.605638 -29.704229
Pu 0.000000 39.605638 -19.802818
Pu 0.000000 39.605638 -9.901409
Pu 0.000000 39.605638 0.000000
Pu 0.000000 39.605638 9.901409
Pu 0.000000 39.605638 19.802818
Pu 0.000000 39.605638 29.704229
Pu 9.901409 -39.605638 -29.704229
Pu 9.901409 -39.605638 -19.802818
Pu 9.901409 -39.605638 -9.901409
Pu 9.901409 -39.605638 0.000000
Pu 9.901409 -39.605638 9.901409
Pu 9.901409 -39.605638 19.802818
Pu 9.901409 -39.605638 29.704229
Pu 9.901409 -29.704229 -39.605638
Pu 9.901409 -29.704229 -29.704229
Pu 9.901409 -29.704229 -19.802818
Pu 9.901409 -29.704229 -9.901409
Pu 9.901409 -29.704229 0.000000
Pu 9.901409 -29.704229 9.901409
Pu 9.901409 -29.704229 19.802818
Pu 9.901409 -29.704229 29.704229
Pu 9.901409 -29.704229 39.605638
Pu 9.901409 -19.802818 -39.605638
Pu 9.901409 -19.802818 -29.704229
Pu 9.901409 -19.802818 -19.802818
Pu 9.901409 -19.802818 -9.901409
Pu 9.901409 -19.802818 0.000000
Pu 9.901409 -19.802818 9.901409
Pu 9.901409 -19.802818 19.802818
Pu 9.901409 -19.802818 29.704229
Pu 9.901409 -19.802818 39.605638
Pu 9.901409 -9.901409 -39.605638
Pu 9.901409 -9.901409 -29.704229
Pu 9.901409 -9.901409 -19.802818
Pu 9.901409 -9.901409 -9.901409
Pu 9.901409 -9.901409 0.000000
Pu 9.901409 -9.901409 9.901409
Pu 9.901409 -9.901409 19.802818
Pu 9.901409 -9.901409 29.704229
Pu 9.901409 -9.901409 39.605638
Pu 9.901409 -0.000000 -39.605638
Pu 9.901409 -0.000000 -29.704229
Pu 9.901409 -0.000000 -19.802818
Pu 9.901409 -0.000000 -9.901409
Pu 9.901409 0.000000 0.000000
Pu 9.901409 0.000000 9.901409
Pu 9.901409 0.000000 19.802818
Pu 9.901409 0.000000 29.704229
Pu 9.901409 0.000000 39.605638
Pu 9.901409 9.901409 -39.605638
Pu 9.901409 9.901409 -29.704229
Pu 9.901409 9.901409 -19.802818
Pu 9.901409 9.901409 -9.901409
Pu 9.901409 9.901409 0.000000
Pu 9.901409 9.901409 9.901409
Pu 9.901409 9.901409 19.802818
Pu 9.901409 9.901409 29.704229
Pu 9.901409 9.901409 39.605638
Pu 9.901409 19.802818 -39.605638
Pu 9.901409 19.802818 -29.704229
Pu 9.901409 19.802818 -19.802818
Pu 9.901409 19.802818 -9.901409
Pu 9.901409 19.802818 0.000000
Pu 9.901409 19.802818 9.901409
Pu 9.901409 19.802818 19.802818
Pu 9.901409 19.802818 29.704229
Pu 9.901409 19.802818 39.605638
Pu 9.901409 29.704229 -39.605638
Pu 9.901409 29.704229 -29.704229
Pu 9.901409 29.704229 -19.802818
Pu 9.901409 29.704229 -9.901409
Pu 9.901409 29.704229 0.000000
Pu 9.901409 29.704229 9.901409
Pu 9.901409 29.704229 19.802818
Pu 9.901409 29.704229 29.704229
Pu 9.901409 29.704229 39.605638
Pu 9.901409 39.605638 -29.704229
Pu 9.901409 39.605638 -19.802818
Pu 9.901409 39.605638 -9.901409
Pu 9.901409 39.605638 0.000000
Pu 9.901409 39.605638 9.901409
Pu 9.901409 39.605638 19.802818
Pu 9.901409 39.605638 29.704229
Pu 19.802818 -39.605638 -29.704229
Pu 19.802818 -39.605638 -19.802818
Pu 19.802818 -39.605638 -9.901409
Pu 19.802818 -39.605638 0.000000
Pu 19.802818 -39.605638 9.901409
Pu 19.802818 -39.605638 19.802818
Pu 19.802818 -39.605638 29.704229
Pu 19.802818 -29.704229 -39.605638
Pu 19.802818 -29.704229 -29.704229
Pu 19.802818 -29.704229 -19.802818
Pu 19.802818 -29.704229 -9.901409
Pu 19.802818 -29.704229 0.000000
Pu 19.802818 -29.704229 9.901409
Pu 19.802818 -29.704229 19.802818
Pu 19.802818 -29.704229 29.704229
Pu 19.802818 -29.704229 39.605638
Pu 19.802818 -19.802818 -39.605638
Pu 19.802818 -19.802818 -29.704229
Pu 19.802818 -19.802818 -19.802818
Pu 19.802818 -19.802818 -9.901409
Pu 19.802818 -19.802818 0.000000
Pu 19.802818 -19.802818 9.901409
Pu 19.802818 -19.802818 19.802818
Pu 19.802818 -19.802818 29.704229
Pu 19.802818 -19.802818 39.605638
Pu 19.802818 -9.901409 -39.605638
Pu 19.802818 -9.901409 -29.704229
Pu 19.802818 -9.901409 -19.802818
Pu 19.802818 -9.901409 -9.901409
Pu 19.802818 -9.901409 0.000000
Pu 19.802818 -9.901409 9.901409
Pu 19.802818 -9.901409 19.802818
Pu 19.802818 -9.901409 29.704229
Pu 19.802818 -9.901409 39.605638
Pu 19.802818 -0.000000 -39.605638
Pu 19.802818 -0.000000 -29.704229
Pu 19.802818 -0.000000 -19.802818
Pu 19.802818 -0.000000 -9.901409
Pu 19.802818 0.000000 0.000000
Pu 19.802818 0.000000 9.901409
Pu 19.802818 0.000000 19.802818
Pu 19.802818 0.000000 29.704229
Pu 19.802818 0.000000 39.605638
Pu 19.802818 9.901409 -39.605638
Pu 19.802818 9.901409 -29.704229
Pu 19.802818 9.901409 -19.802818
Pu 19.802818 9.901409 -9.901409
Pu 19.802818 9.901409 0.000000
Pu 19.802818 9.901409 9.901409
Pu 19.802818 9.901409 19.802818
Pu 19.802818 9.901409 29.704229
Pu 19.802818 9.901409 39.605638
Pu 19.802818 19.802818 -39.605638
Pu 19.802818 19.802818 -29.704229
Pu 19.802818 19.802818 -19.802818
Pu 19.802818 19.802818 -9.901409
Pu 19.802818 19.802818 0.000000
Pu 19.802818 19.802818 9.901409
Pu 19.802818 19.802818 19.802818
Pu 19.802818 19.802818 29.704229
Pu 19.802818 19.802818 39.605638
Pu 19.802818 29.704229 -39.605638
Pu 19.802818 29.704229 -29.704229
Pu 19.802818 29.704229 -19.802818
Pu 19.802818 29.704229 -9.901409
Pu 19.802818 29.704229 0.000000
Pu 19.802818 29.704229 9.901409
Pu 19.802818 29.704229 19.802818
Pu 19.802818 29.704229 29.704229
Pu 19.802818 29.704229 39.605638
Pu 19.802818 39.605638 -29.704229
Pu 19.802818 39.605638 -19.802818
Pu 19.802818 39.605638 -9.901409
Pu 19.802818 39.605638 0.000000
Pu 19.802818 39.605638 9.901409
Pu 19.802818 39.605638 19.802818
Pu 19.802818 39.605638 29.704229
Pu 29.704229 -39.605638 -19.802818
Pu 29.704229 -39.605638 -9.901409
Pu 29.704229 -39.605638 0.000000
Pu 29.704229 -39.605638 9.901409
Pu 29.704229 -39.605638 19.802818
Pu 29.704229 -29.704229 -29.704229
Pu 29.704229 -29.704229 -19.802818
Pu 29.704229 -29.704229 -9.901409
Pu 29.704229 -29.704229 0.000000
Pu 29.704229 -29.704229 9.901409
Pu 29.704229 -29.704229 19.802818
Pu 29.704229 -29.704229 29.704229
Pu 29.704229 -19.802818 -39.605638
Pu 29.704229 -19.802818 -29.704229
Pu 29.704229 -19.802818 -19.802818
Pu 29.704229 -19.802818 -9.901409
Pu 29.704229 -19.802818 0.000000
Pu 29.704229 -19.802818 9.901409
Pu 29.704229 -19.802818 19.802818
Pu 29.704229 -19.802818 29.704229
Pu 29.704229 -19.802818 39.605638
Pu 29.704229 -9.901409 -39.605638
Pu 29.704229 -9.901409 -29.704229
Pu 29.704229 -9.901409 -19.802818
Pu 29.704229 -9.901409 -9.901409
Pu 29.704229 -9.901409 0.000000
Pu 29.704229 -9.901409 9.901409
Pu 29.704229 -9.901409 19.802818
Pu 29.704229 -9.901409 29.704229
Pu 29.704229 -9.901409 39.605638
Pu 29.704229 -0.000000 -39.605638
Pu 29.704229 -0.000000 -29.704229
Pu 29.704229 -0.000000 -19.802818
Pu 29.704229 -0.000000 -9.901409
Pu 29.704229 0.000000 0.000000
Pu 29.704229 0.000000 9.901409
Pu 29.704229 0.000000 19.802818
Pu 29.704229 0.000000 29.704229
Pu 29.704229 0.000000 39.605638
Pu 29.704229 9.901409 -39.605638
Pu 29.704229 9.901409 -29.704229
Pu 29.704229 9.901409 -19.802818
Pu 29.704229 9.901409 -9.901409
Pu 29.704229 9.901409 0.000000
Pu 29.704229 9.901409 9.901409
Pu 29.704229 9.901409 19.802818
Pu 29.704229 9.901409 29.704229
Pu 29.704229 9.901409 39.605638
Pu 29.704229 19.802818 -39.605638
Pu 29.704229 19.802818 -29.704229
Pu 29.704229 19.802818 -19.802818
Pu 29.704229 19.802818 -9.901409
Pu 29.704229 19.802818 0.000000
Pu 29.704229 19.802818 9.901409
Pu 29.704229 19.802818 19.802818
Pu 29.704229 19.802818 29.704229
Pu 29.704229 19.802818 39.605638
Pu 29.704229 29.704229 -29.704229
Pu 29.704229 29.704229 -19.802818
Pu 29.704229 29.704229 -9.901409
Pu 29.704229 29.704229 0.000000
Pu 29.704229 29.704229 9.901409
Pu 29.704229 29.704229 19.802818
Pu 29.704229 29.704229 29.704229
Pu 29.704229 39.605638 -19.802818
Pu 29.704229 39.605638 -9.901409
Pu 29.704229 39.605638 0.000000
Pu 29.704229 39.605638 9.901409
Pu 29.704229 39.605638 19.802818
Pu 39.605638 -29.704229 -19.802818
Pu 39.605638 -29.704229 -9.901409
Pu 39.605638 -29.704229 0.000000
Pu 39.605638 -29.704229 9.901409
Pu 39.605638 -29.704229 19.802818
Pu 39.605638 -19.802818 -29.704229
Pu 39.605638 -19.802818 -19.802818
Pu 39.605638 -19.802818 -9.901409
Pu 39.605638 -19.802818 0.000000
Pu 39.605638 -19.802818 9.901409
Pu 39.605638 -19.802818 19.802818
Pu 39.605638 -19.802818 29.704229
Pu 39.605638 -9.901409 -29.704229
Pu 39.605638 -9.901409 -19.802818
Pu 39.605638 -9.901409 -9.901409
Pu 39.605638 -9.901409 0.000000
Pu 39.605638 -9.901409 9.901409
Pu 39.605638 -9.901409 19.802818
Pu 39.605638 -9.901409 29.704229
Pu 39.605638 -0.000000 -29.704229
Pu 39.605638 -0.000000 -19.802818
Pu 39.605638 -0.000000 -9.901409
Pu 39.605638 0.000000 0.000000
Pu 39.605638 0.000000 9.901409
Pu 39.605638 0.000000 19.802818
Pu 39.605638 0.000000 29.704229
Pu 39.605638 9.901409 -29.704229
Pu 39.605638 9.901409 -19.802818
Pu 39.605638 9.901409 -9.901409
Pu 39.605638 9.901409 0.000000
Pu 39.605638 9.901409 9.901409
Pu 39.605638 9.901409 19.802818
Pu 39.605638 9.901409 29.704229
Pu 39.605638 19.802818 -29.704229
Pu 39.605638 19.802818 -19.802818
Pu 39.605638 19.802818 -9.901409
Pu 39.605638 19.802818 0.000000
Pu 39.605638 19.802818 9.901409
Pu 39.605638 19.802818 19.802818
Pu 39.605638 19.802818 29.704229
Pu 39.605638 29.704229 -19.802818
Pu 39.605638 29.704229 -9.901409
Pu 39.605638 29.704229 0.000000
Pu 39.605638 29.704229 9.901409
Pu 39.605638 29.704229 19.802818
Pu -39.605638 -34.654932 -14.852114
Pu -39.605638 -34.654932 -4.950705
Pu -39.605638 -34.654932 4.950705
Pu -39.605638 -34.654932 14.852114
Pu -39.605638 -24.753524 -24.753524
Pu -39.605638 -24.753524 -14.852114
Pu -39.605638 -24.753524 -4.950705
Pu -39.605638 -24.753524 4.950705
Pu -39.605638 -24.753524 14.852114
Pu -39.605638 -24.753524 24.753524
Pu -39.605638 -14.852114 -34.654932
Pu -39.605638 -14.852114 -24.753524
Pu -39.605638 -14.852114 -14.852114
Pu -39.605638 -14.852114 -4.950705
Pu -39.605638 -14.852114 4.950705
Pu -39.605638 -14.852114 14.852114
Pu -39.605638 -14.852114 24.753524
Pu -39.605638 -14.852114 34.654932
Pu -39.605638 -4.950705 -34.654932
Pu -39.605638 -4.950705 -24.753524
Pu -39.605638 -4.950705 -14.852114
Pu -39.605638 -4.950705 -4.950705
Pu -39.605638 -4.950705 4.950705
Pu -39.605638 -4.950705 14.852114
Pu -39.605638 -4.950705 24.753524
Pu -39.605638 -4.950705 34.654932
Pu -39.605638 4.950705 -34.654932
Pu -39.605638 4.950705 -24.753524
Pu -39.605638 4.950705 -14.852114
Pu -39.605638 4.950705 -4.950705
Pu -39.605638 4.950705 4.950705
Pu -39.605638 4.950705 14.852114
Pu -39.605638 4.950705 24.753524
Pu -39.605638 4.950705 34.654932
Pu -39.605638 14.852114 -34.654932
Pu -39.605638 14.852114 -24.753524
Pu -39.605638 14.852114 -14.852114
Pu -39.605638 14.852114 -4.950705
Pu -39.605638 14.852114 4.950705
Pu -39.605638 14.852114 14.852114
Pu -39.605638 14.852114 24.753524
Pu -39.605638 14.852114 34.654932
Pu -39.605638 24.753524 -24.753524
Pu -39.605638 24.753524 -14.852114
Pu -39.605638 24.753524 -4.950705
Pu -39.605638 24.753524 4.950705
Pu -39.605638 24.753524 14.852114
Pu -39.605638 24.753524 24.753524
Pu -39.605638 34.654932 -14.852114
Pu -39.605638 34.654932 -4.950705
Pu -39.605638 34.654932 4.950705
Pu -39.605638 34.654932 14.852114
Pu -29.704229 -44.556342 -4.950705
Pu -29.704229 -44.556342 4.950705
Pu -29.704229 -34.654932 -24.753524
Pu -29.704229 -34.654932 -14.852114
Pu -29.704229 -34.654932 -4.950705
Pu -29.704229 -34.654932 4.950705
Pu -29.704229 -34.654932 14.852114
Pu -29.704229 -34.654932 24.753524
Pu -29.704229 -24.753524 -34.654932
Pu -29.704229 -24.753524 -24.753524
Pu -29.704229 -24.753524 -14.852114
Pu -29.704229 -24.753524 -4.950705
Pu -29.704229 -24.753524 4.950705
Pu -29.704229 -24.753524 14.852114
Pu -29.704229 -24.753524 24.753524
Pu -29.704229 -24.753523 34.654932
Pu -29.704229 -14.852114 -34.654932
Pu -29.704229 -14.852114 -24.753524
Pu -29.704229 -14.852114 -14.852114
Pu -29.704229 -14.852114 -4.950705
Pu -29.704229 -14.852114 4.950705
Pu -29.704229 -14.852114 14.852114
Pu -29.704229 -14.852114 24.753524
Pu -29.704229 -14.852114 34.654932
Pu -29.704229 -4.950705 -44.556342
Pu -29.704229 -4.950705 -34.654932
Pu -29.704229 -4.950705 -24.753524
Pu -29.704229 -4.950705 -14.852114
Pu -29.704229 -4.950705 -4.950705
Pu -29.704229 -4.950705 4.950705
Pu -29.704229 -4.950705 14.852114
Pu -29.704229 -4.950705 24.753524
Pu -29.704229 -4.950705 34.654932
Pu -29.704229 -4.950705 44.556342
Pu -29.704229 4.950705 -44.556342
Pu -29.704229 4.950705 -34.654932
Pu -29.704229 4.950705 -24.753524
Pu -29.704229 4.950705 -14.852114
Pu -29.704229 4.950705 -4.950705
Pu -29.704229 4.950705 4.950705
Pu -29.704229 4.950705 14.852114
Pu -29.704229 4.950705 24.753524
Pu -29.704229 4.950705 34.654932
Pu -29.704229 4.950705 44.556342
Pu -29.704229 14.852114 -34.654932
Pu -29.704229 14.852114 -24.753524
Pu -29.704229 14.852114 -14.852114
Pu -29.704229 14.852114 -4.950705
Pu -29.704229 14.852114 4.950705
Pu -29.704229 14.852114 14.852114
Pu -29.704229 14.852114 24.753524
Pu -29.704229 14.852114 34.654932
Pu -29.704229 24.753523 -34.654932
Pu -29.704229 24.753524 -24.753524
Pu -29.704229 24.753524 -14.852114
Pu -29.704229 24.753524 -4.950705
Pu -29.704229 24.753524 4.950705
Pu -29.704229 24.753524 14.852114
Pu -29.704229 24.753524 24.753524
Pu -29.704229 24.753524 34.654932
Pu -29.704229 34.654932 -24.753524
Pu -29.704229 34.654932 -14.852114
Pu -29.704229 34.654932 -4.950705
Pu -29.704229 34.654932 4.950705
Pu -29.704229 34.654932 14.852114
Pu -29.704229 34.654932 24.753524
Pu -29.704229 44.556342 -4.950705
Pu -29.704229 44.556342 4.950705
Pu -19.802818 -44.556342 -24.753524
Pu -19.802818 -44.556342 -14.852114
Pu -19.802818 -44.556342 -4.950705
Pu -19.802818 -44.556342 4.950705
Pu -19.802818 -44.556342 14.852114
Pu -19.802818 -44.556342 24.753524
Pu -19.802818 -34.654932 -34.654932
Pu -19.802818 -34.654932 -24.753524
Pu -19.802818 -34.654932 -14.852114
Pu -19.802818 -34.654932 -4.950705
Pu -19.802818 -34.654932 4.950705
Pu -19.802818 -34.654932 14.852114
Pu -19.802818 -34.654932 24.753524
Pu -19.802818 -34.654932 34.654932
Pu -19.802818 -24.753524 -44.556342
Pu -19.802818 -24.753524 -34.654932
Pu -19.802818 -24.753524 -24.753524
Pu -19.802818 -24.753524 -14.852114
Pu -19.802818 -24.753524 -4.950705
Pu -19.802818 -24.753524 4.950705
Pu -19.802818 -24.753524 14.852114
Pu -19.802818 -24.753524 24.753524
Pu -19.802818 -24.753523 34.654932
Pu -19.802818 -24.753523 44.556342
Pu -19.802818 -14.852114 -44.556342
Pu -19.802818 -14.852114 -34.654932
Pu -19.802818 -14.852114 -24.753524
Pu -19.802818 -14.852114 -14.852114
Pu -19.802818 -14.852114 -4.950705
Pu -19.802818 -14.852114 4.950705
Pu -19.802818 -14.852114 14.852114
Pu -19.802818 -14.852114 24.753524
Pu -19.802818 -14.852114 34.654932
Pu -19.802818 -14.852114 44.556342
Pu -19.802818 -4.950705 -44.556342
Pu -19.802818 -4.950705 -34.654932
Pu -19.802818 -4.950705 -24.753524
Pu -19.802818 -4.950705 -14.852114
Pu -19.802818 -4.950705 -4.950705
Pu -19.802818 -4.950705 4.950705
Pu -19.802818 -4.950705 14.852114
Pu -19.802818 -4.950705 24.753524
Pu -19.802818 -4.950705 34.654932
Pu -19.802818 -4.950705 44.556342
Pu -19.802818 4.950705 -44.556342
Pu -19.802818 4.950705 -34.654932
Pu -19.802818 4.950705 -24.753524
Pu -19.802818 4.950705 -14.852114
Pu -19.802818 4.950705 -4.950705
Pu -19.802818 4.950705 4.950705
Pu -19.802818 4.950705 14.852114
Pu -19.802818 4.950705 24.753524
Pu -19.802818 4.950705 34.654932
Pu -19.802818 4.950705 44.556342
Pu -19.802818 14.852114 -44.556342
Pu -19.802818 14.852114 -34.654932
Pu -19.802818 14.852114 -24.753524
Pu -19.802818 14.852114 -14.852114
Pu -19.802818 14.852114 -4.950705
Pu -19.802818 14.852114 4.950705
Pu -19.802818 14.852114 14.852114
Pu -19.802818 14.852114 24.753524
Pu -19.802818 14.852114 34.654932
Pu -19.802818 14.852114 44.556342
Pu -19.802818 24.753523 -44.556342
Pu -19.802818 24.753523 -34.654932
Pu -19.802818 24.753524 -24.753524
Pu -19.802818 24.753524 -14.852114
Pu -19.802818 24.753524 -4.950705
Pu -19.802818 24.753524 4.950705
Pu -19.802818 24.753524 14.852114
Pu -19.802818 24.753524 24.753524
Pu -19.802818 24.753524 34.654932
Pu -19.802818 24.753524 44.556342
Pu -19.802818 34.654932 -34.654932
Pu -19.802818 34.654932 -24.753524
Pu -19.802818 34.654932 -14.852114
Pu -19.802818 34.654932 -4.950705
Pu -19.802818 34.654932 4.950705
Pu -19.802818 34.654932 14.852114
Pu -19.802818 34.654932 24.753524
Pu -19.802818 34.654932 34.654932
Pu -19.802818 44.556342 -24.753524
Pu -19.802818 44.556342 -14.852114
Pu -19.802818 44.556342 -4.950705
Pu -19.802818 44.556342 4.950705
Pu -19.802818 44.556342 14.852114
Pu -19.802818 44.556342 24.753524
Pu -9.901409 -44.556342 -24.753524
Pu -9.901409 -44.556342 -14.852114
Pu -9.901409 -44.556342 -4.950705
Pu -9.901409 -44.556342 4.950705
Pu -9.901409 -44.556342 14.852114
Pu -9.901409 -44.556342 24.753524
Pu -9.901409 -34.654932 -34.654932
Pu -9.901409 -34.654932 -24.753524
Pu -9.901409 -34.654932 -14.852114
Pu -9.901409 -34.654932 -4.950705
Pu -9.901409 -34.654932 4.950705
Pu -9.901409 -34.654932 14.852114
Pu -9.901409 -34.654932 24.753524
Pu -9.901409 -34.654932 34.654932
Pu -9.901409 -24.753524 -44.556342
Pu -9.901409 -24.753524 -34.654932
Pu -9.901409 -24.753524 -24.753524
Pu -9.901409 -24.753524 -14.852114
Pu -9.901409 -24.753524 -4.950705
Pu -9.901409 -24.753524 4.950705
Pu -9.901409 -24.753524 14.852114
Pu -9.901409 -24.753524 24.753524
Pu -9.901409 -24.753523 34.654932
Pu -9.901409 -24.753523 44.556342
Pu -9.901409 -14.852114 -44.556342
Pu -9.901409 -14.852114 -34.654932
Pu -9.901409 -14.852114 -24.753524
Pu -9.901409 -14.852114 -14.852114
Pu -9.901409 -14.852114 -4.950705
Pu -9.901409 -14.852114 4.950705
Pu -9.901409 -14.852114 14.852114
Pu -9.901409 -14.852114 24.753524
Pu -9.901409 -14.852114 34.654932
Pu -9.901409 -14.852114 44.556342
Pu -9.901409 -4.950705 -44.556342
Pu -9.901409 -4.950705 -34.654932
Pu -9.901409 -4.950705 -24.753524
Pu -9.901409 -4.950705 -14.852114
Pu -9.901409 -4.950705 -4.950705
Pu -9.901409 -4.950705 4.950705
Pu -9.901409 -4.950705 14.852114
Pu -9.901409 -4.950705 24.753524
Pu -9.901409 -4.950705 34.654932
Pu -9.901409 -4.950705 44.556342
Pu -9.901409 4.950705 -44.556342
Pu -9.901409 4.950705 -34.654932
Pu -9.901409 4.950705 -24.753524
Pu -9.901409 4.950705 -14.852114
Pu -9.901409 4.950705 -4.950705
Pu -9.901409 4.950705 4.950705
Pu -9.901409 4.950705 14.852114
Pu -9.901409 4.950705 24.753524
Pu -9.901409 4.950705 34.654932
Pu -9.901409 4.950705 44.556342
Pu -9.901409 14.852114 -44.556342
Pu -9.901409 14.852114 -34.654932
Pu -9.901409 14.852114 -24.753524
Pu -9.901409 14.852114 -14.852114
Pu -9.901409 14.852114 -4.950705
Pu -9.901409 14.852114 4.950705
Pu -9.901409 14.852114 14.852114
Pu -9.901409 14.852114 24.753524
Pu -9.901409 14.852114 34.654932
Pu -9.901409 14.852114 44.556342
Pu -9.901409 24.753523 -44.556342
Pu -9.901409 24.753523 -34.654932
Pu -9.901409 24.753524 -24.753524
Pu -9.901409 24.753524 -14.852114
Pu -9.901409 24.753524 -4.950705
Pu -9.901409 24.753524 4.950705
Pu -9.901409 24.753524 14.852114
Pu -9.901409 24.753524 24.753524
Pu -9.901409 24.753524 34.654932
Pu -9.901409 24.753524 44.556342
Pu -9.901409 34.654932 -34.654932
Pu -9.901409 34.654932 -24.753524
Pu -9.901409 34.654932 -14.852114
Pu -9.901409 34.654932 -4.950705
Pu -9.901409 34.654932 4.950705
Pu -9.901409 34.654932 14.852114
Pu -9.901409 34.654932 24.753524
Pu -9.901409 34.654932 34.654932
Pu -9.901409 44.556342 -24.753524
Pu -9.901409 44.556342 -14.852114
Pu -9.901409 44.556342 -4.950705
Pu -9.901409 44.556342 4.950705
Pu -9.901409 44.556342 14.852114
Pu -9.901409 44.556342 24.753524
Pu -0.000000 -44.556342 -24.753524
Pu -0.000000 -44.556342 -14.852114
Pu -0.000000 -44.556342 -4.950705
Pu -0.000000 -44.556342 4.950705
Pu -0.000000 -44.556342 14.852114
Pu -0.000000 -44.556342 24.753524
Pu -0.000000 -34.654932 -34.654932
Pu -0.000000 -34.654932 -24.753524
Pu -0.000000 -34.654932 -14.852114
Pu -0.000000 -34.654932 -4.950705
Pu -0.000000 -34.654932 4.950705
Pu -0.000000 -34.654932 14.852114
Pu -0.000000 -34.654932 24.753524
Pu 0.000000 -34.654932 34.654932
Pu -0.000000 -24.753524 -44.556342
Pu -0.000000 -24.753524 -34.654932
Pu -0.000000 -24.753524 -24.753524
Pu -0.000000 -24.753524 -14.852114
Pu -0.000000 -24.753524 -4.950705
Pu -0.000000 -24.753524 4.950705
Pu -0.000000 -24.753524 14.852114
Pu 0.000000 -24.753524 24.753524
Pu 0.000000 -24.753523 34.654932
Pu 0.000000 -24.753523 44.556342
Pu -0.000000 -14.852114 -44.556342
Pu -0.000000 -14.852114 -34.654932
Pu -0.000000 -14.852114 -24.753524
Pu -0.000000 -14.852114 -14.852114
Pu -0.000000 -14.852114 -4.950705
Pu -0.000000 -14.852114 4.950705
Pu 0.000000 -14.852114 14.852114
Pu 0.000000 -14.852114 24.753524
Pu 0.000000 -14.852114 34.654932
Pu 0.000000 -14.852114 44.556342
Pu -0.000000 -4.950705 -44.556342
Pu -0.000000 -4.950705 -34.654932
Pu -0.000000 -4.950705 -24.753524
Pu -0.000000 -4.950705 -14.852114
Pu -0.000000 -4.950705 -4.950705
Pu 0.000000 -4.950705 4.950705
Pu 0.000000 -4.950705 14.852114
Pu 0.000000 -4.950705 24.753524
Pu 0.000000 -4.950705 34.654932
Pu 0.000000 -4.950705 44.556342
Pu -0.000000 4.950705 -44.556342
Pu -0.000000 4.950705 -34.654932
Pu -0.000000 4.950705 -24.753524
Pu -0.000000 4.950705 -14.852114
Pu 0.000000 4.950705 -4.950705
Pu 0.000000 4.950705 4.950705
Pu 0.000000 4.950705 14.852114
Pu 0.000000 4.950705 24.753524
Pu 0.000000 4.950705 34.654932
Pu 0.000000 4.950705 44.556342
Pu -0.000000 14.852114 -44.556342
Pu -0.000000 14.852114 -34.654932
Pu -0.000000 14.852114 -24.753524
Pu 0.000000 14.852114 -14.852114
Pu 0.000000 14.852114 -4.950705
Pu 0.000000 14.852114 4.950705
Pu 0.000000 14.852114 14.852114
Pu 0.000000 14.852114 24.753524
Pu 0.000000 14.852114 34.654932
Pu 0.000000 14.852114 44.556342
Pu -0.000000 24.753523 -44.556342
Pu -0.000000 24.753523 -34.654932
Pu 0.000000 24.753524 -24.753524
Pu 0.000000 24.753524 -14.852114
Pu 0.000000 24.753524 -4.950705
Pu 0.000000 24.753524 4.950705
Pu 0.000000 24.753524 14.852114
Pu 0.000000 24.753524 24.753524
Pu 0.000000 24.753524 34.654932
Pu 0.000000 24.753524 44.556342
Pu 0.000000 34.654932 -34.654932
Pu 0.000000 34.654932 -24.753524
Pu 0.000000 34.654932 -14.852114
Pu 0.000000 34.654932 -4.950705
Pu 0.000000 34.654932 4.950705
Pu 0.000000 34.654932 14.852114
Pu 0.000000 34.654932 24.753524
Pu 0.000000 34.654932 34.654932
Pu 0.000000 44.556342 -24.753524
Pu 0.000000 44.556342 -14.852114
Pu 0.000000 44.556342 -4.950705
Pu 0.000000 44.556342 4.950705
Pu 0.000000 44.556342 14.852114
Pu 0.000000 44.556342 24.753524
O 9.901409 -44.556342 -24.753524
