4
First comment line and lots of texts to break columns
La         0.00000        0.00000        0.00000
F          0.00000        0.00000        2.07700
F          1.38615        1.39420       -0.67954
F          0.57894       -1.86677       -0.67412
4
fram 2
La         0.00000        0.00000        0.00000
F          0.00000        0.00000        2.07700
F          1.38615        1.39420       -0.67954
F          0.57894       -1.86677       -0.67412
4

La         0.00000        0.00000        0.00000
F          0.00000        0.00000        2.07700
F          1.38615        1.39420       -0.67954
F          0.57894       -1.86677       -0.67412
4

La         0.00000        0.00000        0.00000
F          0.00000        0.00000        2.07700
F          1.38615        1.39420       -0.67954
F          0.57894       -1.86677       -0.67412
4

La         0.00000        0.00000        0.00000
F          0.00000        0.00000        2.07700
F          1.38615        1.39420       -0.67954
F          0.57894       -1.86677       -0.67412
4

La         0.00000        0.00000        0.00000
F          0.00000        0.00000        2.07700
F          1.38615        1.39420       -0.67954
F          0.57894       -1.86677       -0.67412
4

La         0.00000        0.00000        0.00000
F          0.00000        0.00000        2.07700
F          1.38615        1.39420       -0.67954
F          0.57894       -1.86677       -0.67412
4

La         0.00000        0.00000        0.00000
F          0.00000        0.00000        2.07700
F          1.38615        1.39420       -0.67954
F          0.57894       -1.86677       -0.67412
4

La         0.00000        0.00000        0.00000
F          0.00000        0.00000        2.07700
F          1.38615        1.39420       -0.67954
F          0.57894       -1.86677       -0.67412
4

La         0.00000        0.00000        0.00000
F          0.00000        0.00000        2.07700
F          1.38615        1.39420       -0.67954
F          0.57894       -1.86677       -0.67412
4

La         0.00000        0.00000        0.00000
F          0.00000        0.00000        2.07700
F          1.38615        1.39420       -0.67954
F          0.57894       -1.86677       -0.67412
4

La         0.00000        0.00000        0.00000
F          0.00000        0.00000        2.07700
F          1.38615        1.39420       -0.67954
F          0.57894       -1.86677       -0.67412
4

La         0.00000        0.00000        0.00000
F          0.00000        0.00000        2.07700
F          1.38615        1.39420       -0.67954
F          0.57894       -1.86677       -0.67412
4

La         0.00000        0.00000        0.00000
F          0.00000        0.00000        2.07700
F          1.38615        1.39420       -0.67954
F          0.57894       -1.86677       -0.67412
4

La         0.00000        0.00000        0.00000
F          0.00000        0.00000        2.07700
F          1.38615        1.39420       -0.67954
F          0.57894       -1.86677       -0.67412
4

La         0.00000        0.00000        0.00000
F          0.00000        0.00000        2.07700
F          1.38615        1.39420       -0.67954
F          0.57894       -1.86677       -0.67412
4

La         0.00000        0.00000        0.00000
F          0.00000        0.00000        2.07700
F          1.38615        1.39420       -0.67954
F          0.57894       -1.86677       -0.67412
4

La         0.00000        0.00000        0.00000
F          0.00000        0.00000        2.07700
F          1.38615        1.39420       -0.67954
F          0.57894       -1.86677       -0.67412
4

La         0.00000        0.00000        0.00000
F          0.00000        0.00000        2.07700
F          1.38615        1.39420       -0.67954
F          0.57894       -1.86677       -0.67412
4

La         0.00000        0.00000        0.00000
F          0.00000        0.00000        2.07700
F          1.38615        1.39420       -0.67954
F          0.57894       -1.86677       -0.67412
4

La         0.00000        0.00000        0.00000
F          0.00000        0.00000        2.07700
F          1.38615        1.39420       -0.67954
F          0.57894       -1.86677       -0.67412
4

La         0.00000        0.00000        0.00000
F          0.00000        0.00000        2.07700
F          1.38615        1.39420       -0.67954
F          0.57894       -1.86677       -0.67412
4

La         0.00000        0.00000        0.00000
F          0.00000        0.00000        2.07700
F          1.38615        1.39420       -0.67954
F          0.57894       -1.86677       -0.67412
4

La         0.00000        0.00000        0.00000
F          0.00000        0.00000        2.07700
F          1.38615        1.39420       -0.67954
F          0.57894       -1.86677       -0.67412
4

La         0.00000        0.00000        0.00000
F          0.00000        0.00000        2.07700
F          1.38615        1.39420       -0.67954
F          0.57894       -1.86677       -0.67412
4

La         0.00000        0.00000        0.00000
F          0.00000        0.00000        2.07700
F          1.38615        1.39420       -0.67954
F          0.57894       -1.86677       -0.67412
4

La         0.00000        0.00000        0.00000
F          0.00000        0.00000        2.07700
F          1.38615        1.39420       -0.67954
F          0.57894       -1.86677       -0.67412
4

La         0.00000        0.00000        0.00000
F          0.00000        0.00000        2.07700
F          1.38615        1.39420       -0.67954
F          0.57894       -1.86677       -0.67412
4

La         0.00000        0.00000        0.00000
F          0.00000        0.00000        2.07700
F          1.38615        1.39420       -0.67954
F          0.57894       -1.86677       -0.67412
4

La         0.00000        0.00000        0.00000
F          0.00000        0.00000        2.07700
F          1.38615        1.39420       -0.67954
F          0.57894       -1.86677       -0.67412
4

La         0.00000        0.00000        0.00000
F          0.00000        0.00000        2.07700
F          1.38615        1.39420       -0.67954
F          0.57894       -1.86677       -0.67412
4

La         0.00000        0.00000        0.00000
F          0.00000        0.00000        2.07700
F          1.38615        1.39420       -0.67954
F          0.57894       -1.86677       -0.67412
4

La         0.00000        0.00000        0.00000
F          0.00000        0.00000        2.07700
F          1.38615        1.39420       -0.67954
F          0.57894       -1.86677       -0.67412
4

La         0.00000        0.00000        0.00000
F          0.00000        0.00000        2.07700
F          1.38615        1.39420       -0.67954
F          0.57894       -1.86677       -0.67412
4

La         0.00000        0.00000        0.00000
F          0.00000        0.00000        2.07700
F          1.38615        1.39420       -0.67954
F          0.57894       -1.86677       -0.67412
4

La         0.00000        0.00000        0.00000
F          0.00000        0.00000        2.07700
F          1.38615        1.39420       -0.67954
F          0.57894       -1.86677       -0.67412
4

La         0.00000        0.00000        0.00000
F          0.00000        0.00000        2.07700
F          1.38615        1.39420       -0.67954
F          0.57894       -1.86677       -0.67412
4

La         0.00000        0.00000        0.00000
F          0.00000        0.00000        2.07700
F          1.38615        1.39420       -0.67954
F          0.57894       -1.86677       -0.67412
4

La         0.00000        0.00000        0.00000
F          0.00000        0.00000        2.07700
F          1.38615        1.39420       -0.67954
F          0.57894       -1.86677       -0.67412
4

La         0.00000        0.00000        0.00000
F          0.00000        0.00000        2.07700
F          1.38615        1.39420       -0.67954
F          0.57894       -1.86677       -0.67412
4

La         0.00000        0.00000        0.00000
F          0.00000        0.00000        2.07700
F          1.38615        1.39420       -0.67954
F          0.57894       -1.86677       -0.67412
4

La         0.00000        0.00000        0.00000
F          0.00000        0.00000        2.07700
F          1.38615        1.39420       -0.67954
F          0.57894       -1.86677       -0.67412
4

La         0.00000        0.00000        0.00000
F          0.00000        0.00000        2.07700
F          1.38615        1.39420       -0.67954
F          0.57894       -1.86677       -0.67412
4

La         0.00000        0.00000        0.00000
F          0.00000        0.00000        2.07700
F          1.38615        1.39420       -0.67954
F          0.57894       -1.86677       -0.67412
4

La         0.00000        0.00000        0.00000
F          0.00000        0.00000        2.07700
F          1.38615        1.39420       -0.67954
F          0.57894       -1.86677       -0.67412
4

La         0.00000        0.00000        0.00000
F          0.00000        0.00000        2.07700
F          1.38615        1.39420       -0.67954
F          0.57894       -1.86677       -0.67412
4

La         0.00000        0.00000        0.00000
F          0.00000        0.00000        2.07700
F          1.38615        1.39420       -0.67954
F          0.57894       -1.86677       -0.67412
4

La         0.00000        0.00000        0.00000
F          0.00000        0.00000        2.07700
F          1.38615        1.39420       -0.67954
F          0.57894       -1.86677       -0.67412
4

La         0.00000        0.00000        0.00000
F          0.00000        0.00000        2.07700
F          1.38615        1.39420       -0.67954
F          0.57894       -1.86677       -0.67412
4

La         0.00000        0.00000        0.00000
F          0.00000        0.00000        2.07700
F          1.38615        1.39420       -0.67954
F          0.57894       -1.86677       -0.67412
4

La         0.00000        0.00000        0.00000
F          0.00000        0.00000        2.07700
F          1.38615        1.39420       -0.67954
F          0.57894       -1.86677       -0.67412
4

La         0.00000        0.00000        0.00000
F          0.00000        0.00000        2.07700
F          1.38615        1.39420       -0.67954
F          0.57894       -1.86677       -0.67412
4

La         0.00000        0.00000        0.00000
F          0.00000        0.00000        2.07700
F          1.38615        1.39420       -0.67954
F          0.57894       -1.86677       -0.67412
4

La         0.00000        0.00000        0.00000
F          0.00000        0.00000        2.07700
F          1.38615        1.39420       -0.67954
F          0.57894       -1.86677       -0.67412
4

La         0.00000        0.00000        0.00000
F          0.00000        0.00000        2.07700
F          1.38615        1.39420       -0.67954
F          0.57894       -1.86677       -0.67412
4

La         0.00000        0.00000        0.00000
F          0.00000        0.00000        2.07700
F          1.38615        1.39420       -0.67954
F          0.57894       -1.86677       -0.67412
4

La         0.00000        0.00000        0.00000
F          0.00000        0.00000        2.07700
F          1.38615        1.39420       -0.67954
F          0.57894       -1.86677       -0.67412
4

La         0.00000        0.00000        0.00000
F          0.00000        0.00000        2.07700
F          1.38615        1.39420       -0.67954
F          0.57894       -1.86677       -0.67412
4

La         0.00000        0.00000        0.00000
F          0.00000        0.00000        2.07700
F          1.38615        1.39420       -0.67954
F          0.57894       -1.86677       -0.67412
4

La         0.00000        0.00000        0.00000
F          0.00000        0.00000        2.07700
F          1.38615        1.39420       -0.67954
F          0.57894       -1.86677       -0.67412
4

La         0.00000        0.00000        0.00000
F          0.00000        0.00000        2.07700
F          1.38615        1.39420       -0.67954
F          0.57894       -1.86677       -0.67412
4

La         0.00000        0.00000        0.00000
F          0.00000        0.00000        2.07700
F          1.38615        1.39420       -0.67954
F          0.57894       -1.86677       -0.67412
4

La         0.00000        0.00000        0.00000
F          0.00000        0.00000        2.07700
F          1.38615        1.39420       -0.67954
F          0.57894       -1.86677       -0.67412
4

La         0.00000        0.00000        0.00000
F          0.00000        0.00000        2.07700
F          1.38615        1.39420       -0.67954
F          0.57894       -1.86677       -0.67412
4

La         0.00000        0.00000        0.00000
F          0.00000        0.00000        2.07700
F          1.38615        1.39420       -0.67954
F          0.57894       -1.86677       -0.67412
4

La         0.00000        0.00000        0.00000
F          0.00000        0.00000        2.07700
F          1.38615        1.39420       -0.67954
F          0.57894       -1.86677       -0.67412
4

La         0.00000        0.00000        0.00000
F          0.00000        0.00000        2.07700
F          1.38615        1.39420       -0.67954
F          0.57894       -1.86677       -0.67412
4

La         0.00000        0.00000        0.00000
F          0.00000        0.00000        2.07700
F          1.38615        1.39420       -0.67954
F          0.57894       -1.86677       -0.67412
4

La         0.00000        0.00000        0.00000
F          0.00000        0.00000        2.07700
F          1.38615        1.39420       -0.67954
F          0.57894       -1.86677       -0.67412
4

La         0.00000        0.00000        0.00000
F          0.00000        0.00000        2.07700
F          1.38615        1.39420       -0.67954
F          0.57894       -1.86677       -0.67412
4

La         0.00000        0.00000        0.00000
F          0.00000        0.00000        2.07700
F          1.38615        1.39420       -0.67954
F          0.57894       -1.86677       -0.67412
4

La         0.00000        0.00000        0.00000
F          0.00000        0.00000        2.07700
F          1.38615        1.39420       -0.67954
F          0.57894       -1.86677       -0.67412
4

La         0.00000        0.00000        0.00000
F          0.00000        0.00000        2.07700
F          1.38615        1.39420       -0.67954
F          0.57894       -1.86677       -0.67412
4
Random middle comment line
La         0.00000        0.00000        0.00000
F          0.00000        0.00000        2.07700
F          1.38615        1.39420       -0.67954
F          0.57894       -1.86677       -0.67412
4

La         0.00000        0.00000        0.00000
F          0.00000        0.00000        2.07700
F          1.38615        1.39420       -0.67954
F          0.57894       -1.86677       -0.67412
4

La         0.00000        0.00000        0.00000
F          0.00000        0.00000        2.07700
F          1.38615        1.39420       -0.67954
F          0.57894       -1.86677       -0.67412
4

La         0.00000        0.00000        0.00000
F          0.00000        0.00000        2.07700
F          1.38615        1.39420       -0.67954
F          0.57894       -1.86677       -0.67412
4

La         0.00000        0.00000        0.00000
F          0.00000        0.00000        2.07700
F          1.38615        1.39420       -0.67954
F          0.57894       -1.86677       -0.67412
4

La         0.00000        0.00000        0.00000
F          0.00000        0.00000        2.07700
F          1.38615        1.39420       -0.67954
F          0.57894       -1.86677       -0.67412
4

La         0.00000        0.00000        0.00000
F          0.00000        0.00000        2.07700
F          1.38615        1.39420       -0.67954
F          0.57894       -1.86677       -0.67412
4

La         0.00000        0.00000        0.00000
F          0.00000        0.00000        2.07700
F          1.38615        1.39420       -0.67954
F          0.57894       -1.86677       -0.67412
4

La         0.00000        0.00000        0.00000
F          0.00000        0.00000        2.07700
F          1.38615        1.39420       -0.67954
F          0.57894       -1.86677       -0.67412
4

La         0.00000        0.00000        0.00000
F          0.00000        0.00000        2.07700
F          1.38615        1.39420       -0.67954
F          0.57894       -1.86677       -0.67412
4

La         0.00000        0.00000        0.00000
F          0.00000        0.00000        2.07700
F          1.38615        1.39420       -0.67954
F          0.57894       -1.86677       -0.67412
4

La         0.00000        0.00000        0.00000
F          0.00000        0.00000        2.07700
F          1.38615        1.39420       -0.67954
F          0.57894       -1.86677       -0.67412
4

La         0.00000        0.00000        0.00000
F          0.00000        0.00000        2.07700
F          1.38615        1.39420       -0.67954
F          0.57894       -1.86677       -0.67412
4

La         0.00000        0.00000        0.00000
F          0.00000        0.00000        2.07700
F          1.38615        1.39420       -0.67954
F          0.57894       -1.86677       -0.67412
4

La         0.00000        0.00000        0.00000
F          0.00000        0.00000        2.07700
F          1.38615        1.39420       -0.67954
F          0.57894       -1.86677       -0.67412
4

La         0.00000        0.00000        0.00000
F          0.00000        0.00000        2.07700
F          1.38615        1.39420       -0.67954
F          0.57894       -1.86677       -0.67412
4

La         0.00000        0.00000        0.00000
F          0.00000        0.00000        2.07700
F          1.38615        1.39420       -0.67954
F          0.57894       -1.86677       -0.67412
4

La         0.00000        0.00000        0.00000
F          0.00000        0.00000        2.07700
F          1.38615        1.39420       -0.67954
F          0.57894       -1.86677       -0.67412
4

La         0.00000        0.00000        0.00000
F          0.00000        0.00000        2.07700
F          1.38615        1.39420       -0.67954
F          0.57894       -1.86677       -0.67412
4

La         0.00000        0.00000        0.00000
F          0.00000        0.00000        2.07700
F          1.38615        1.39420       -0.67954
F          0.57894       -1.86677       -0.67412
4

La         0.00000        0.00000        0.00000
F          0.00000        0.00000        2.07700
F          1.38615        1.39420       -0.67954
F          0.57894       -1.86677       -0.67412
4

La         0.00000        0.00000        0.00000
F          0.00000        0.00000        2.07700
F          1.38615        1.39420       -0.67954
F          0.57894       -1.86677       -0.67412
4

La         0.00000        0.00000        0.00000
F          0.00000        0.00000        2.07700
F          1.38615        1.39420       -0.67954
F          0.57894       -1.86677       -0.67412
4

La         0.00000        0.00000        0.00000
F          0.00000        0.00000        2.07700
F          1.38615        1.39420       -0.67954
F          0.57894       -1.86677       -0.67412
4

La         0.00000        0.00000        0.00000
F          0.00000        0.00000        2.07700
F          1.38615        1.39420       -0.67954
F          0.57894       -1.86677       -0.67412
4

La         0.00000        0.00000        0.00000
F          0.00000        0.00000        2.07700
F          1.38615        1.39420       -0.67954
F          0.57894       -1.86677       -0.67412
4

La         0.00000        0.00000        0.00000
F          0.00000        0.00000        2.07700
F          1.38615        1.39420       -0.67954
F          0.57894       -1.86677       -0.67412
4

La         0.00000        0.00000        0.00000
F          0.00000        0.00000        2.07700
F          1.38615        1.39420       -0.67954
F          0.57894       -1.86677       -0.67412
4

La         0.00000        0.00000        0.00000
F          0.00000        0.00000        2.07700
F          1.38615        1.39420       -0.67954
F          0.57894       -1.86677       -0.67412
4

La         0.00000        0.00000        0.00000
F          0.00000        0.00000        2.07700
F          1.38615        1.39420       -0.67954
F          0.57894       -1.86677       -0.67412
4

La         0.00000        0.00000        0.00000
F          0.00000        0.00000        2.07700
F          1.38615        1.39420       -0.67954
F          0.57894       -1.86677       -0.67412
4

La         0.00000        0.00000        0.00000
F          0.00000        0.00000        2.07700
F          1.38615        1.39420       -0.67954
F          0.57894       -1.86677       -0.67412
4

La         0.00000        0.00000        0.00000
F          0.00000        0.00000        2.07700
F          1.38615        1.39420       -0.67954
F          0.57894       -1.86677       -0.67412
4

La         0.00000        0.00000        0.00000
F          0.00000        0.00000        2.07700
F          1.38615        1.39420       -0.67954
F          0.57894       -1.86677       -0.67412
4

La         0.00000        0.00000        0.00000
F          0.00000        0.00000        2.07700
F          1.38615        1.39420       -0.67954
F          0.57894       -1.86677       -0.67412
4

La         0.00000        0.00000        0.00000
F          0.00000        0.00000        2.07700
F          1.38615        1.39420       -0.67954
F          0.57894       -1.86677       -0.67412
4

La         0.00000        0.00000        0.00000
F          0.00000        0.00000        2.07700
F          1.38615        1.39420       -0.67954
F          0.57894       -1.86677       -0.67412
4

La         0.00000        0.00000        0.00000
F          0.00000        0.00000        2.07700
F          1.38615        1.39420       -0.67954
F          0.57894       -1.86677       -0.67412
4

La         0.00000        0.00000        0.00000
F          0.00000        0.00000        2.07700
F          1.38615        1.39420       -0.67954
F          0.57894       -1.86677       -0.67412
4

La         0.00000        0.00000        0.00000
F          0.00000        0.00000        2.07700
F          1.38615        1.39420       -0.67954
F          0.57894       -1.86677       -0.67412
4

La         0.00000        0.00000        0.00000
F          0.00000        0.00000        2.07700
F          1.38615        1.39420       -0.67954
F          0.57894       -1.86677       -0.67412
4

La         0.00000        0.00000        0.00000
F          0.00000        0.00000        2.07700
F          1.38615        1.39420       -0.67954
F          0.57894       -1.86677       -0.67412
4

La         0.00000        0.00000        0.00000
F          0.00000        0.00000        2.07700
F          1.38615        1.39420       -0.67954
F          0.57894       -1.86677       -0.67412
4

La         0.00000        0.00000        0.00000
F          0.00000        0.00000        2.07700
F          1.38615        1.39420       -0.67954
F          0.57894       -1.86677       -0.67412
4

La         0.00000        0.00000        0.00000
F          0.00000        0.00000        2.07700
F          1.38615        1.39420       -0.67954
F          0.57894       -1.86677       -0.67412
4

La         0.00000        0.00000        0.00000
F          0.00000        0.00000        2.07700
F          1.38615        1.39420       -0.67954
F          0.57894       -1.86677       -0.67412
4

La         0.00000        0.00000        0.00000
F          0.00000        0.00000        2.07700
F          1.38615        1.39420       -0.67954
F          0.57894       -1.86677       -0.67412
4

La         0.00000        0.00000        0.00000
F          0.00000        0.00000        2.07700
F          1.38615        1.39420       -0.67954
F          0.57894       -1.86677       -0.67412
4

La         0.00000        0.00000        0.00000
F          0.00000        0.00000        2.07700
F          1.38615        1.39420       -0.67954
F          0.57894       -1.86677       -0.67412
4

La         0.00000        0.00000        0.00000
F          0.00000        0.00000        2.07700
F          1.38615        1.39420       -0.67954
F          0.57894       -1.86677       -0.67412
4

La         0.00000        0.00000        0.00000
F          0.00000        0.00000        2.07700
F          1.38615        1.39420       -0.67954
F          0.57894       -1.86677       -0.67412
4
Final comment line
La         0.00000        0.00000        0.00000
F          0.00000        0.00000        2.07700
F          1.38615        1.39420       -0.67954
F          0.57894       -1.86677       -0.67412
